LTspice 24.1.6 for Windows
Circuit: C:\Users\neilt\Documents\Vivado-Projects\Week8\Part2.net
Start Time: Tue Apr  8 22:52:29 2025
solver = Normal
Maximum thread count: 12
tnom = 27
temp = 27
method = trap
Direct Newton iteration for .op point succeeded.
Total elapsed time: 0.054 seconds.

Files loaded:
C:\Users\neilt\Documents\Vivado-Projects\Week8\Part2.net
C:\Users\neilt\AppData\Local\LTspice\lib\sub\UniversalOpAmp2.lib

